Version 4
SHEET 1 2532 792
WIRE 1248 -256 1152 -256
WIRE 1376 -256 1328 -256
WIRE 1408 -256 1376 -256
WIRE 1664 -256 1488 -256
WIRE 864 -160 864 -192
WIRE 864 -160 544 -160
WIRE 880 -160 864 -160
WIRE 1376 -160 1376 -256
WIRE 1376 -160 1152 -160
WIRE 1408 -160 1376 -160
WIRE 1824 -160 1408 -160
WIRE 1152 -144 1152 -160
WIRE 1408 -144 1408 -160
WIRE 432 -128 272 -128
WIRE 640 -128 432 -128
WIRE 272 -112 272 -128
WIRE 432 -112 432 -128
WIRE 912 -80 816 -80
WIRE 1008 -80 992 -80
WIRE 1408 -32 1408 -64
WIRE 272 -16 272 -32
WIRE 880 0 880 -160
WIRE 544 16 544 -160
WIRE 704 16 672 16
WIRE 816 16 816 -80
WIRE 816 16 784 16
WIRE 848 16 816 16
WIRE 1152 16 1152 -64
WIRE 1344 16 1152 16
WIRE 432 32 432 -32
WIRE 512 32 432 32
WIRE 1008 32 1008 -80
WIRE 1008 32 912 32
WIRE 640 48 640 -128
WIRE 640 48 576 48
WIRE 848 48 640 48
WIRE 1152 48 1152 16
WIRE 1824 48 1824 -160
WIRE 272 64 272 48
WIRE 512 64 272 64
WIRE 272 96 272 64
WIRE 272 96 208 96
WIRE 336 96 272 96
WIRE 208 112 208 96
WIRE 336 112 336 96
WIRE 432 112 432 32
WIRE 1408 112 1408 64
WIRE 1536 112 1536 80
WIRE 1536 112 1408 112
WIRE 1584 112 1536 112
WIRE 544 144 544 80
WIRE 880 144 880 64
WIRE 880 144 544 144
WIRE 1408 144 1408 112
WIRE 1728 160 1648 160
WIRE 1824 160 1824 128
WIRE 1824 160 1728 160
WIRE 544 176 544 144
WIRE 1152 192 1152 128
WIRE 1824 192 1824 160
WIRE 1664 208 1584 208
WIRE 208 224 208 192
WIRE 272 224 208 224
WIRE 336 224 336 176
WIRE 336 224 272 224
WIRE 272 240 272 224
WIRE 432 240 432 192
WIRE 1408 240 1408 208
WIRE 1728 288 1728 256
WIRE 784 304 784 272
WIRE 784 304 704 304
WIRE 448 320 400 320
WIRE 704 320 704 304
WIRE 704 320 672 320
WIRE 1056 320 1024 320
WIRE 1088 320 1056 320
WIRE 1200 320 1168 320
WIRE 1360 320 1200 320
WIRE 1200 368 1200 320
WIRE 448 384 304 384
WIRE 784 384 672 384
WIRE 448 448 384 448
WIRE 704 448 672 448
WIRE 704 464 704 448
WIRE 784 464 704 464
WIRE 1200 464 1200 432
WIRE 304 560 304 384
WIRE 784 560 784 464
WIRE 784 560 304 560
WIRE 1056 576 1056 320
WIRE 1200 576 1056 576
WIRE 784 640 784 624
FLAG 432 240 0
FLAG 544 176 -ve
IOPIN 544 176 In
FLAG 1008 32 sine
IOPIN 1008 32 Out
FLAG 384 448 CLK
FLAG 400 320 0
FLAG 1024 320 CLK
FLAG 1200 464 0
FLAG 1200 576 square
IOPIN 1200 576 Out
FLAG 1360 320 triangular
IOPIN 1360 320 Out
FLAG 672 16 0
FLAG 864 -192 press
IOPIN 864 -192 In
FLAG 272 240 0
FLAG 784 272 press
IOPIN 784 272 In
FLAG 784 640 0
FLAG 1408 240 0
FLAG 1152 192 0
FLAG 1728 288 0
FLAG 1824 272 0
FLAG 1664 -256 +ve
FLAG 1152 -256 0
FLAG 1536 80 sawtooth
IOPIN 1536 80 Out
SYMBOL res 416 -128 R0
SYMATTR InstName R1
SYMATTR Value 20k
SYMBOL res 416 96 R0
SYMATTR InstName R2
SYMATTR Value 10k
SYMBOL Opamps\\LT1368 544 -16 R0
SYMATTR InstName U1
SYMBOL Misc\\NE555 560 416 R0
SYMATTR InstName U2
SYMBOL res 1184 304 R90
WINDOW 0 0 56 VBottom 2
WINDOW 3 32 56 VTop 2
SYMATTR InstName R9
SYMATTR Value 100k
SYMBOL cap 1184 368 R0
SYMATTR InstName C6
SYMATTR Value 28.6n
SYMBOL Opamps\\LT1368 880 -32 R0
WINDOW 3 -42 128 Left 2
SYMATTR InstName U3
SYMBOL res 800 0 R90
WINDOW 0 0 56 VBottom 2
WINDOW 3 32 56 VTop 2
SYMATTR InstName R10
SYMATTR Value 100
SYMBOL res 1008 -96 R90
WINDOW 0 0 56 VBottom 2
WINDOW 3 32 56 VTop 2
SYMATTR InstName R11
SYMATTR Value 10k
SYMBOL cap 320 112 R0
WINDOW 3 -18 58 Left 2
SYMATTR Value 0.1µ
SYMATTR InstName C7
SYMBOL cap 256 -16 R0
SYMATTR InstName C8
SYMATTR Value 0.1µ
SYMBOL res 256 -128 R0
SYMATTR InstName R12
SYMATTR Value 4558
SYMBOL res 192 96 R0
SYMATTR InstName R13
SYMATTR Value 4558
SYMBOL res 768 288 R0
SYMATTR InstName R14
SYMATTR Value 10k
SYMBOL res 768 368 R0
SYMATTR InstName R15
SYMATTR Value 39K
SYMBOL cap 768 560 R0
SYMATTR InstName C9
SYMATTR Value 0.047µ
SYMBOL res 1136 -160 R0
SYMATTR InstName R3
SYMATTR Value 1k
SYMBOL res 1392 -160 R0
SYMATTR InstName R4
SYMATTR Value 10k
SYMBOL pnp 1344 64 M180
SYMATTR InstName Q2
SYMATTR Value 2N3906
SYMBOL res 1136 32 R0
SYMATTR InstName R5
SYMATTR Value 10k
SYMBOL pnp 1648 208 R180
SYMATTR InstName Q3
SYMATTR Value 2N3906
SYMBOL cap 1392 144 R0
SYMATTR InstName C1
SYMATTR Value 2.02n
SYMBOL npn 1664 160 R0
SYMATTR InstName Q4
SYMATTR Value 2N3904
SYMBOL res 1808 32 R0
SYMATTR InstName R6
SYMATTR Value 10k
SYMBOL res 1808 176 R0
SYMATTR InstName R16
SYMATTR Value 10k
SYMBOL res 1232 -272 M90
WINDOW 0 0 56 VBottom 2
WINDOW 3 32 56 VTop 2
SYMATTR InstName R17
SYMATTR Value 1k
SYMBOL res 1392 -272 M90
WINDOW 0 0 56 VBottom 2
WINDOW 3 32 56 VTop 2
SYMATTR InstName R18
SYMATTR Value 1k
TEXT 680 120 Left 2 ;f=1/2piRC
TEXT 304 648 Left 2 !.tran 20m startup
