Version 4
SHEET 1 2244 792
WIRE 112 -352 16 -352
WIRE 240 -352 192 -352
WIRE 272 -352 240 -352
WIRE 528 -352 352 -352
WIRE -560 -256 -560 -288
WIRE -560 -256 -880 -256
WIRE -544 -256 -560 -256
WIRE 240 -256 240 -352
WIRE 240 -256 16 -256
WIRE 272 -256 240 -256
WIRE 752 -256 272 -256
WIRE 16 -240 16 -256
WIRE 272 -240 272 -256
WIRE -992 -224 -1152 -224
WIRE -784 -224 -992 -224
WIRE -1152 -208 -1152 -224
WIRE -992 -208 -992 -224
WIRE -512 -176 -608 -176
WIRE -416 -176 -432 -176
WIRE 272 -128 272 -160
WIRE -1152 -112 -1152 -128
WIRE -544 -96 -544 -256
WIRE -880 -80 -880 -256
WIRE -720 -80 -752 -80
WIRE -608 -80 -608 -176
WIRE -608 -80 -640 -80
WIRE -576 -80 -608 -80
WIRE 16 -80 16 -160
WIRE 208 -80 16 -80
WIRE -992 -64 -992 -128
WIRE -912 -64 -992 -64
WIRE -416 -64 -416 -176
WIRE -416 -64 -512 -64
WIRE -784 -48 -784 -224
WIRE -784 -48 -848 -48
WIRE -576 -48 -784 -48
WIRE 16 -48 16 -80
WIRE 752 -48 752 -256
WIRE -1152 -32 -1152 -48
WIRE -912 -32 -1152 -32
WIRE 464 -32 432 -32
WIRE -1152 0 -1152 -32
WIRE -1152 0 -1216 0
WIRE -1088 0 -1152 0
WIRE -1216 16 -1216 0
WIRE -1088 16 -1088 0
WIRE -992 16 -992 -64
WIRE 272 16 272 -32
WIRE 432 16 432 -32
WIRE 432 16 272 16
WIRE 448 16 432 16
WIRE -880 48 -880 -16
WIRE -544 48 -544 -32
WIRE -544 48 -880 48
WIRE 272 48 272 16
WIRE 592 64 512 64
WIRE 752 64 752 32
WIRE 752 64 592 64
WIRE -880 80 -880 48
WIRE 16 96 16 32
WIRE 752 96 752 64
WIRE 528 112 448 112
WIRE -1216 128 -1216 96
WIRE -1152 128 -1216 128
WIRE -1088 128 -1088 80
WIRE -1088 128 -1152 128
WIRE -1152 144 -1152 128
WIRE -992 144 -992 96
WIRE 272 144 272 112
WIRE 592 192 592 160
WIRE -640 208 -640 176
WIRE -640 208 -720 208
WIRE -976 224 -1024 224
WIRE -720 224 -720 208
WIRE -720 224 -752 224
WIRE -368 224 -400 224
WIRE -336 224 -368 224
WIRE -224 224 -256 224
WIRE -64 224 -224 224
WIRE -224 272 -224 224
WIRE -976 288 -1120 288
WIRE -640 288 -752 288
WIRE -976 352 -1040 352
WIRE -720 352 -752 352
WIRE -720 368 -720 352
WIRE -640 368 -720 368
WIRE -224 368 -224 336
WIRE -1120 464 -1120 288
WIRE -640 464 -640 368
WIRE -640 464 -1120 464
WIRE -368 480 -368 224
WIRE -224 480 -368 480
WIRE -640 544 -640 528
FLAG -992 144 0
FLAG -880 80 -ve
IOPIN -880 80 In
FLAG -416 -64 sine
IOPIN -416 -64 Out
FLAG -1040 352 CLK
FLAG -1024 224 0
FLAG 464 -32 sawtooth
IOPIN 464 -32 Out
FLAG -400 224 CLK
FLAG -224 368 0
FLAG -224 480 square
IOPIN -224 480 Out
FLAG -64 224 triangular
IOPIN -64 224 Out
FLAG -752 -80 0
FLAG -560 -288 press
IOPIN -560 -288 In
FLAG -1152 144 0
FLAG -640 176 press
IOPIN -640 176 In
FLAG -640 544 0
FLAG 272 144 0
FLAG 16 96 0
FLAG 592 192 0
FLAG 752 176 0
FLAG 528 -352 +ve
FLAG 16 -352 0
SYMBOL res -1008 -224 R0
SYMATTR InstName R1
SYMATTR Value 20k
SYMBOL res -1008 0 R0
SYMATTR InstName R2
SYMATTR Value 10k
SYMBOL Opamps\\LT1368 -880 -112 R0
SYMATTR InstName U1
SYMBOL Misc\\NE555 -864 320 R0
SYMATTR InstName U2
SYMBOL res -240 208 R90
WINDOW 0 0 56 VBottom 2
WINDOW 3 32 56 VTop 2
SYMATTR InstName R9
SYMATTR Value 100k
SYMBOL cap -240 272 R0
SYMATTR InstName C6
SYMATTR Value 22.7n
SYMBOL Opamps\\LT1368 -544 -128 R0
WINDOW 3 -42 128 Left 2
SYMATTR InstName U3
SYMBOL res -624 -96 R90
WINDOW 0 0 56 VBottom 2
WINDOW 3 32 56 VTop 2
SYMATTR InstName R10
SYMATTR Value 100
SYMBOL res -416 -192 R90
WINDOW 0 0 56 VBottom 2
WINDOW 3 32 56 VTop 2
SYMATTR InstName R11
SYMATTR Value 10k
SYMBOL cap -1104 16 R0
WINDOW 3 -18 58 Left 2
SYMATTR Value 0.1µ
SYMATTR InstName C7
SYMBOL cap -1168 -112 R0
SYMATTR InstName C8
SYMATTR Value 0.1µ
SYMBOL res -1168 -224 R0
SYMATTR InstName R12
SYMATTR Value 3600
SYMBOL res -1232 0 R0
SYMATTR InstName R13
SYMATTR Value 3600
SYMBOL res -656 192 R0
SYMATTR InstName R3
SYMATTR Value 3.3k
SYMBOL res -656 272 R0
SYMATTR InstName R4
SYMATTR Value 33K
SYMBOL cap -656 464 R0
SYMATTR InstName C1
SYMATTR Value 0.047µ
SYMBOL res 0 -256 R0
SYMATTR InstName R5
SYMATTR Value 1k
SYMBOL res 256 -256 R0
SYMATTR InstName R6
SYMATTR Value 10k
SYMBOL pnp 208 -32 M180
SYMATTR InstName Q1
SYMATTR Value 2N3906
SYMBOL res 0 -64 R0
SYMATTR InstName R7
SYMATTR Value 10k
SYMBOL pnp 512 112 R180
SYMATTR InstName Q2
SYMATTR Value 2N3906
SYMBOL cap 256 48 R0
SYMATTR InstName C2
SYMATTR Value 1.6n
SYMBOL npn 528 64 R0
SYMATTR InstName Q3
SYMATTR Value 2N3904
SYMBOL res 736 -64 R0
SYMATTR InstName R8
SYMATTR Value 10k
SYMBOL res 736 80 R0
SYMATTR InstName R14
SYMATTR Value 10k
SYMBOL res 96 -368 M90
WINDOW 0 0 56 VBottom 2
WINDOW 3 32 56 VTop 2
SYMATTR InstName R15
SYMATTR Value 1k
SYMBOL res 256 -368 M90
WINDOW 0 0 56 VBottom 2
WINDOW 3 32 56 VTop 2
SYMATTR InstName R16
SYMATTR Value 1k
TEXT -744 24 Left 2 ;f=1/2piRC
TEXT -1120 552 Left 2 !.tran 20m startup
