Version 4
SHEET 1 1940 792
WIRE 1360 -400 1344 -400
WIRE 1360 -320 1360 -400
WIRE 864 -272 864 -336
WIRE 1312 -256 1296 -256
WIRE 816 -208 800 -208
WIRE 864 -160 864 -192
WIRE 864 -160 544 -160
WIRE 880 -160 864 -160
WIRE 1360 -144 1360 -240
WIRE 1360 -144 1136 -144
WIRE 1392 -144 1360 -144
WIRE 1872 -144 1392 -144
WIRE 432 -128 272 -128
WIRE 640 -128 432 -128
WIRE 1136 -128 1136 -144
WIRE 1392 -128 1392 -144
WIRE 272 -112 272 -128
WIRE 432 -112 432 -128
WIRE 912 -80 816 -80
WIRE 1008 -80 992 -80
WIRE 272 -16 272 -32
WIRE 1392 -16 1392 -48
WIRE 880 0 880 -160
WIRE 544 16 544 -160
WIRE 704 16 672 16
WIRE 816 16 816 -80
WIRE 816 16 784 16
WIRE 848 16 816 16
WIRE 432 32 432 -32
WIRE 512 32 432 32
WIRE 1008 32 1008 -80
WIRE 1008 32 912 32
WIRE 1136 32 1136 -48
WIRE 1328 32 1136 32
WIRE 640 48 640 -128
WIRE 640 48 576 48
WIRE 848 48 640 48
WIRE 272 64 272 48
WIRE 512 64 272 64
WIRE 1136 64 1136 32
WIRE 1872 64 1872 -144
WIRE 272 96 272 64
WIRE 272 96 208 96
WIRE 336 96 272 96
WIRE 208 112 208 96
WIRE 336 112 336 96
WIRE 432 112 432 32
WIRE 1392 128 1392 80
WIRE 1536 128 1536 80
WIRE 1536 128 1392 128
WIRE 1568 128 1536 128
WIRE 544 144 544 80
WIRE 880 144 880 64
WIRE 880 144 544 144
WIRE 1392 160 1392 128
WIRE 1712 176 1632 176
WIRE 1872 176 1872 144
WIRE 1872 176 1712 176
WIRE 1136 208 1136 144
WIRE 1872 208 1872 176
WIRE 32 224 32 208
WIRE 208 224 208 192
WIRE 272 224 208 224
WIRE 336 224 336 176
WIRE 336 224 272 224
WIRE 1648 224 1568 224
WIRE 272 240 272 224
WIRE 432 240 432 192
WIRE 1392 256 1392 224
WIRE 544 272 544 144
WIRE 544 272 96 272
WIRE 784 304 784 272
WIRE 784 304 704 304
WIRE 1712 304 1712 272
WIRE 448 320 400 320
WIRE 704 320 704 304
WIRE 704 320 672 320
WIRE 1056 320 1024 320
WIRE 1088 320 1056 320
WIRE 1200 320 1168 320
WIRE 1360 320 1200 320
WIRE 1200 368 1200 320
WIRE 448 384 304 384
WIRE 784 384 672 384
WIRE 448 448 384 448
WIRE 704 448 672 448
WIRE 704 464 704 448
WIRE 784 464 704 464
WIRE 1200 464 1200 432
WIRE 304 560 304 384
WIRE 784 560 784 464
WIRE 784 560 304 560
WIRE 1056 576 1056 320
WIRE 1200 576 1056 576
WIRE 784 640 784 624
FLAG 432 240 0
FLAG 272 240 0
FLAG 1008 32 sine
IOPIN 1008 32 Out
FLAG 384 448 CLK
FLAG 400 320 0
FLAG 784 640 0
FLAG 1024 320 CLK
FLAG 1200 464 0
FLAG 1200 576 square
IOPIN 1200 576 Out
FLAG 1360 320 triangular
IOPIN 1360 320 Out
FLAG 672 16 0
FLAG 784 272 Gate
IOPIN 784 272 In
FLAG 1392 256 0
FLAG 1136 208 0
FLAG 1712 304 0
FLAG 1872 288 0
FLAG 1536 80 sawtooth
IOPIN 1536 80 Out
FLAG 864 -336 +ve
IOPIN 864 -336 In
FLAG 816 -256 0
FLAG 800 -208 Gate
IOPIN 800 -208 In
FLAG 16 272 -ve
IOPIN 16 272 In
FLAG 80 224 0
FLAG 32 208 Gate
IOPIN 32 208 In
FLAG 1440 -400 +ve
IOPIN 1440 -400 In
FLAG 1264 -400 0
FLAG 1312 -304 0
FLAG 1296 -256 Gate
IOPIN 1296 -256 In
SYMBOL res 416 -128 R0
SYMATTR InstName R1
SYMATTR Value 20k
SYMBOL res 416 96 R0
SYMATTR InstName R2
SYMATTR Value 10k
SYMBOL cap 320 112 R0
WINDOW 3 -18 58 Left 2
SYMATTR Value 0.1µ
SYMATTR InstName C1
SYMBOL cap 256 -16 R0
SYMATTR InstName C2
SYMATTR Value 0.1µ
SYMBOL Opamps\\LT1368 544 -16 R0
SYMATTR InstName U1
SYMBOL res 256 -128 R0
SYMATTR InstName R3
SYMATTR Value 5.42k
SYMBOL res 192 96 R0
SYMATTR InstName R4
SYMATTR Value 5.42k
SYMBOL Misc\\NE555 560 416 R0
SYMATTR InstName U2
SYMBOL res 768 288 R0
SYMATTR InstName R5
SYMATTR Value 3k
SYMBOL res 768 368 R0
SYMATTR InstName R6
SYMATTR Value 51K
SYMBOL cap 768 560 R0
SYMATTR InstName C3
SYMATTR Value 0.047µ
SYMBOL res 1184 304 R90
WINDOW 0 0 56 VBottom 2
WINDOW 3 32 56 VTop 2
SYMATTR InstName R9
SYMATTR Value 100k
SYMBOL cap 1184 368 R0
SYMATTR InstName C6
SYMATTR Value 34n
SYMBOL Opamps\\LT1368 880 -32 R0
WINDOW 3 -42 128 Left 2
SYMATTR InstName U3
SYMBOL res 800 0 R90
WINDOW 0 0 56 VBottom 2
WINDOW 3 32 56 VTop 2
SYMATTR InstName R10
SYMATTR Value 100
SYMBOL res 1008 -96 R90
WINDOW 0 0 56 VBottom 2
WINDOW 3 32 56 VTop 2
SYMATTR InstName R11
SYMATTR Value 5k
SYMBOL res 1120 -144 R0
SYMATTR InstName R7
SYMATTR Value 1k
SYMBOL res 1376 -144 R0
SYMATTR InstName R8
SYMATTR Value 10k
SYMBOL pnp 1328 80 M180
SYMATTR InstName Q1
SYMATTR Value 2N3906
SYMBOL res 1120 48 R0
SYMATTR InstName R12
SYMATTR Value 10k
SYMBOL pnp 1632 224 R180
SYMATTR InstName Q2
SYMATTR Value 2N3906
SYMBOL cap 1376 160 R0
SYMATTR InstName C4
SYMATTR Value 2.44n
SYMBOL npn 1648 176 R0
SYMATTR InstName Q3
SYMATTR Value 2N3904
SYMBOL res 1856 48 R0
SYMATTR InstName R13
SYMATTR Value 10k
SYMBOL res 1856 192 R0
SYMATTR InstName R14
SYMATTR Value 10k
SYMBOL sw 864 -288 R0
SYMATTR InstName S1
SYMATTR Value MYSW
SYMBOL sw 112 272 R90
SYMATTR InstName S2
SYMATTR Value MYSW
SYMBOL res 1360 -416 R90
WINDOW 0 0 56 VBottom 2
WINDOW 3 32 56 VTop 2
SYMATTR InstName R15
SYMATTR Value 1k
SYMBOL res 1456 -416 R90
WINDOW 0 0 56 VBottom 2
WINDOW 3 32 56 VTop 2
SYMATTR InstName R16
SYMATTR Value 1k
SYMBOL sw 1360 -336 R0
SYMATTR InstName S3
SYMATTR Value MYSW
TEXT 680 120 Left 2 ;f=1/2piRC
TEXT 304 648 Left 2 !.tran 20m startup
TEXT 312 696 Left 2 !.model MYSW SW(Ron=0.0001 Roff=1000Meg Vt=4 Vh=0)
