Version 4
SHEET 1 3764 3524
WIRE 272 -272 -32 -272
WIRE 800 -272 272 -272
WIRE -496 -160 -496 -192
WIRE -208 -160 -496 -160
WIRE 96 -160 -208 -160
WIRE 464 -160 320 -160
WIRE 624 -160 528 -160
WIRE 96 -128 96 -160
WIRE -496 -112 -496 -160
WIRE -208 -96 -208 -160
WIRE 320 -80 320 -160
WIRE 368 -80 320 -80
WIRE 624 -80 624 -160
WIRE 624 -80 592 -80
WIRE 656 -80 624 -80
WIRE -32 -16 -32 -272
WIRE -32 -16 -208 -16
WIRE 96 -16 96 -48
WIRE 160 -16 96 -16
WIRE 368 -16 240 -16
WIRE -208 32 -208 -16
WIRE -144 32 -208 32
WIRE 32 32 0 32
WIRE 800 32 800 -272
WIRE 864 32 800 32
WIRE -496 48 -496 -32
WIRE -432 48 -496 48
WIRE 368 48 208 48
WIRE 688 48 592 48
WIRE -432 80 -432 48
WIRE -400 80 -432 80
WIRE -272 80 -320 80
WIRE -592 96 -688 96
WIRE -560 96 -592 96
WIRE 32 112 32 32
WIRE 272 112 272 -272
WIRE 368 112 272 112
WIRE 624 112 592 112
WIRE 864 128 864 32
WIRE 864 128 848 128
WIRE -592 144 -592 96
WIRE 624 160 624 112
WIRE 1536 160 1424 160
WIRE 1680 160 1616 160
WIRE -768 176 -768 96
WIRE 1120 224 1072 224
WIRE -592 256 -592 208
WIRE -592 256 -768 256
WIRE -496 256 -496 144
WIRE -496 256 -592 256
WIRE -336 256 -496 256
WIRE -208 256 -208 128
WIRE -208 256 -336 256
WIRE 32 256 32 176
WIRE 32 256 -208 256
WIRE 96 256 96 80
WIRE 96 256 32 256
WIRE 992 288 992 224
WIRE 992 288 960 288
WIRE 1552 288 1552 272
WIRE -336 304 -336 256
WIRE 624 304 560 304
WIRE 1008 304 1008 272
WIRE 1424 304 1424 160
WIRE 1424 304 1360 304
WIRE 1520 304 1424 304
WIRE 912 320 912 304
WIRE 960 320 960 288
WIRE 960 320 912 320
WIRE 976 320 960 320
WIRE 1680 320 1680 160
WIRE 1680 320 1584 320
WIRE 1728 320 1680 320
WIRE 1120 336 1120 224
WIRE 1120 336 1040 336
WIRE 1152 336 1120 336
WIRE 1456 336 1232 336
WIRE 1520 336 1456 336
WIRE 208 352 208 48
WIRE 416 352 208 352
WIRE 560 352 560 304
WIRE 688 352 688 48
WIRE 688 352 672 352
WIRE 800 352 800 320
WIRE 800 352 688 352
WIRE 976 352 800 352
WIRE 1552 384 1552 352
WIRE 800 400 800 352
WIRE 1008 400 1008 368
WIRE 1456 416 1456 336
WIRE -464 432 -464 368
WIRE -704 448 -704 400
WIRE 1360 464 1360 304
WIRE 576 480 416 480
WIRE 688 512 592 512
WIRE 288 528 192 528
WIRE 512 528 512 496
WIRE -704 544 -704 528
WIRE -640 544 -704 544
WIRE -464 544 -464 512
WIRE -352 544 -464 544
WIRE 416 544 416 480
WIRE 480 544 416 544
WIRE 576 560 576 480
WIRE 576 560 544 560
WIRE 592 560 592 512
WIRE 592 560 576 560
WIRE 800 560 800 544
WIRE 800 560 736 560
WIRE -704 576 -704 544
WIRE -464 576 -464 544
WIRE 112 576 64 576
WIRE 192 576 192 528
WIRE 368 576 336 576
WIRE 480 576 368 576
WIRE 1360 576 1360 544
WIRE 368 624 368 576
WIRE 512 624 512 592
WIRE 1360 624 1360 576
WIRE 320 672 240 672
WIRE 240 720 240 672
WIRE 368 720 368 704
FLAG -336 304 0
FLAG -496 -160 5V
FLAG 320 -80 0
FLAG 624 224 0
FLAG 688 416 0
FLAG 912 224 0
FLAG 512 624 -ve
IOPIN 512 624 In
FLAG 1008 400 -ve
IOPIN 1008 400 In
FLAG 592 -16 DIS
FLAG 1728 320 EG
IOPIN 1728 320 Out
FLAG 1456 496 0
FLAG 1552 384 -ve
IOPIN 1552 384 In
FLAG 64 576 5V
FLAG 656 -80 5V
FLAG -768 176 Gate
IOPIN -768 176 In
FLAG 1552 272 +ve
IOPIN 1552 272 In
FLAG 1008 272 +ve
IOPIN 1008 272 In
FLAG 512 496 +ve
IOPIN 512 496 In
FLAG 240 720 DIS
FLAG -704 656 0
FLAG -704 400 +ve
IOPIN -704 400 In
FLAG -640 544 -Vr
FLAG 1360 576 -Vr
FLAG -464 656 0
FLAG -464 368 +ve
IOPIN -464 368 In
FLAG -352 544 5V
SYMBOL Misc\\NE555 480 16 R0
SYMATTR InstName U1
SYMBOL res -672 80 R90
WINDOW 0 0 56 VBottom 2
WINDOW 3 32 56 VTop 2
SYMATTR InstName R1
SYMATTR Value 5.6K
SYMBOL npn -560 48 R0
SYMATTR InstName Q1
SYMBOL npn 32 -16 R0
SYMATTR InstName Q2
SYMBOL npn -272 32 R0
SYMATTR InstName Q3
SYMBOL res -512 -128 R0
SYMATTR InstName R2
SYMATTR Value 10K
SYMBOL diode -576 208 R180
WINDOW 0 24 64 Left 2
WINDOW 3 24 0 Left 2
SYMATTR InstName D1
SYMBOL res -224 -112 R0
SYMATTR InstName R3
SYMATTR Value 10K
SYMBOL res -304 64 R90
WINDOW 0 0 56 VBottom 2
WINDOW 3 32 56 VTop 2
SYMATTR InstName R4
SYMATTR Value 5.6K
SYMBOL cap -80 16 R90
WINDOW 0 0 32 VBottom 2
WINDOW 3 32 32 VTop 2
SYMATTR InstName C1
SYMATTR Value 0.1µ
SYMBOL res 16 16 R90
WINDOW 0 0 56 VBottom 2
WINDOW 3 32 56 VTop 2
SYMATTR InstName R5
SYMATTR Value 5.6K
SYMBOL diode 48 176 R180
WINDOW 0 24 64 Left 2
WINDOW 3 24 0 Left 2
SYMATTR InstName D2
SYMBOL res 80 -144 R0
SYMATTR InstName R6
SYMATTR Value 10K
SYMBOL res 256 -32 R90
WINDOW 0 0 56 VBottom 2
WINDOW 3 32 56 VTop 2
SYMATTR InstName R7
SYMATTR Value 1K
SYMBOL cap 528 -176 R90
WINDOW 0 0 32 VBottom 2
WINDOW 3 32 32 VTop 2
SYMATTR InstName C2
SYMATTR Value 0.1µ
SYMBOL cap 608 160 R0
SYMATTR InstName C3
SYMATTR Value 0.1µ
SYMBOL res 784 160 R0
SYMATTR InstName R9
SYMATTR Value 180
SYMBOL diode 816 320 R180
WINDOW 0 24 64 Left 2
WINDOW 3 24 0 Left 2
SYMATTR InstName D3
SYMBOL diode 416 368 R270
WINDOW 0 32 32 VTop 2
WINDOW 3 0 32 VBottom 2
SYMATTR InstName D4
SYMBOL res 576 336 R90
WINDOW 0 0 56 VBottom 2
WINDOW 3 32 56 VTop 2
SYMATTR InstName R10
SYMATTR Value 180
SYMBOL cap 672 352 R0
SYMATTR InstName C4
SYMATTR Value 3.3µ
SYMBOL diode 784 400 R0
SYMATTR InstName D5
SYMBOL res 784 448 R0
SYMATTR InstName R12
SYMATTR Value 180
SYMBOL res 208 560 R90
WINDOW 0 0 56 VBottom 2
WINDOW 3 32 56 VTop 2
SYMATTR InstName R15
SYMATTR Value 5K
SYMBOL res 896 208 R0
SYMATTR InstName R16
SYMATTR Value 8K
SYMBOL res 1088 208 R90
WINDOW 0 0 56 VBottom 2
WINDOW 3 32 56 VTop 2
SYMATTR InstName R17
SYMATTR Value 8K
SYMBOL Opamps\\LT1013 1008 272 R0
SYMATTR InstName U2
SYMBOL Opamps\\LT1013 512 496 R0
SYMATTR InstName U3
SYMBOL res 1440 400 R0
SYMATTR InstName R14
SYMATTR Value 1K
SYMBOL res 1632 144 R90
WINDOW 0 0 56 VBottom 2
WINDOW 3 32 56 VTop 2
SYMATTR InstName R18
SYMATTR Value 1K
SYMBOL res 1248 320 R90
WINDOW 0 0 56 VBottom 2
WINDOW 3 32 56 VTop 2
SYMATTR InstName R19
SYMATTR Value 1K
SYMBOL res 1376 560 R180
WINDOW 0 36 76 Left 2
WINDOW 3 36 40 Left 2
SYMATTR InstName R20
SYMATTR Value 1K
SYMBOL Opamps\\LT1013 1552 256 R0
SYMATTR InstName U4
SYMBOL pot 816 176 R180
SYMATTR InstName Release
SYMATTR SpiceLine R={R1} Val={V1}
SYMBOL pot 736 544 R90
SYMATTR InstName Decay
SYMATTR SpiceLine R={R5} Val={V5}
SYMBOL pot 352 624 R0
SYMATTR InstName Sustain2
SYMATTR SpiceLine R={R3} Val={V3}
SYMBOL pot 288 544 R270
SYMATTR InstName Sustain1
SYMATTR SpiceLine R={R2} Val={V2}
SYMBOL pot 672 336 R90
SYMATTR InstName Attack
SYMATTR SpiceLine R={R4} Val={V4}
SYMBOL res -720 432 R0
SYMATTR InstName R8
SYMATTR Value 9K
SYMBOL res -720 560 R0
SYMATTR InstName R11
SYMATTR Value 1.05K
SYMBOL res -480 416 R0
SYMATTR InstName R13
SYMATTR Value 7K
SYMBOL res -480 560 R0
SYMATTR InstName R21
SYMATTR Value 5K
TEXT 984 720 Left 2 !.param R1=1000K\n.param V1=VR\n.param R2=1000K\n.param V2=VS1\n.param R3=1000K\n.param V3=VS2\n.param R4=1000K\n.param V4=VA\n.param R5=1000K\n.param V5=VD
