Version 4
SHEET 1 1112 680
WIRE -3904 -2512 -4976 -2512
WIRE -3808 -2512 -3904 -2512
WIRE -3584 -2512 -3648 -2512
WIRE -3456 -2512 -3520 -2512
WIRE -4272 -2448 -4320 -2448
WIRE -3904 -2448 -3904 -2512
WIRE -3808 -2448 -3808 -2512
WIRE -3648 -2432 -3648 -2512
WIRE -3584 -2432 -3648 -2432
WIRE -3456 -2432 -3456 -2512
WIRE -3456 -2432 -3504 -2432
WIRE -4048 -2368 -4128 -2368
WIRE -3808 -2352 -3808 -2368
WIRE -3648 -2352 -3648 -2432
WIRE -3648 -2352 -3808 -2352
WIRE -3568 -2352 -3648 -2352
WIRE -3456 -2336 -3456 -2432
WIRE -3456 -2336 -3504 -2336
WIRE -3408 -2336 -3456 -2336
WIRE -3904 -2320 -3904 -2368
WIRE -3616 -2320 -3904 -2320
WIRE -3568 -2320 -3616 -2320
WIRE -3904 -2288 -3904 -2320
WIRE -3808 -2288 -3808 -2352
WIRE -4448 -2240 -4480 -2240
WIRE -4320 -2240 -4320 -2448
WIRE -4320 -2240 -4384 -2240
WIRE -4288 -2240 -4320 -2240
WIRE -4048 -2240 -4208 -2240
WIRE -3968 -2240 -4048 -2240
WIRE -3696 -2240 -3744 -2240
WIRE -3536 -2240 -3536 -2304
WIRE -3616 -2224 -3616 -2240
WIRE -5456 -2208 -5456 -2240
WIRE -4048 -2192 -4048 -2240
WIRE -3696 -2192 -3696 -2240
WIRE -4976 -2160 -4976 -2512
WIRE -4976 -2160 -5056 -2160
WIRE -4880 -2160 -4976 -2160
WIRE -5056 -2144 -5056 -2160
WIRE -4880 -2144 -4880 -2160
WIRE -4416 -2144 -4416 -2160
WIRE -4672 -2128 -4688 -2128
WIRE -4480 -2128 -4480 -2240
WIRE -4480 -2128 -4592 -2128
WIRE -4448 -2128 -4480 -2128
WIRE -4176 -2128 -4176 -2160
WIRE -5456 -2112 -5456 -2128
WIRE -5456 -2112 -5488 -2112
WIRE -4320 -2112 -4320 -2240
WIRE -4320 -2112 -4384 -2112
WIRE -4208 -2112 -4320 -2112
WIRE -3904 -2112 -3904 -2192
WIRE -3888 -2112 -3904 -2112
WIRE -3808 -2112 -3808 -2192
WIRE -5456 -2096 -5456 -2112
WIRE -4816 -2096 -4832 -2096
WIRE -4688 -2096 -4688 -2128
WIRE -4688 -2096 -4736 -2096
WIRE -4672 -2096 -4688 -2096
WIRE -4544 -2096 -4592 -2096
WIRE -4448 -2096 -4544 -2096
WIRE -4128 -2096 -4128 -2368
WIRE -4128 -2096 -4144 -2096
WIRE -4208 -2080 -4272 -2080
WIRE -4048 -2080 -4048 -2112
WIRE -3696 -2080 -3696 -2112
WIRE -4480 -2064 -4480 -2128
WIRE -4976 -2048 -5056 -2048
WIRE -4880 -2048 -4976 -2048
WIRE -5104 -2016 -5104 -2096
WIRE -4816 -2016 -5104 -2016
WIRE -4688 -2016 -4688 -2096
WIRE -4688 -2016 -4736 -2016
WIRE -4176 -2016 -4176 -2064
WIRE -3904 -2016 -3904 -2112
WIRE -3808 -2016 -3808 -2112
WIRE -3808 -2016 -3824 -2016
WIRE -4544 -2000 -4544 -2016
WIRE -4272 -2000 -4272 -2080
WIRE -5456 -1984 -5456 -2016
WIRE -4416 -1984 -4416 -2080
WIRE -4976 -1952 -4976 -2048
WIRE -4352 -1952 -4352 -2000
WIRE -4480 -1904 -4480 -1984
WIRE -4272 -1888 -4272 -2000
WIRE -4256 -1888 -4272 -1888
WIRE -4128 -1888 -4128 -2096
WIRE -4128 -1888 -4176 -1888
WIRE -4400 -1856 -4416 -1856
WIRE -4128 -1856 -4128 -1888
WIRE -4128 -1856 -4320 -1856
WIRE -3856 -1856 -3856 -1888
WIRE -4480 -1792 -4480 -1808
FLAG -4544 -2000 0
FLAG -4976 -1952 0
FLAG -5488 -2112 0
FLAG -5456 -2240 +ve
FLAG -5456 -1984 -ve
FLAG -4416 -2160 +ve
FLAG -4176 -2160 +ve
FLAG -4416 -1984 -ve
FLAG -4176 -2016 -ve
FLAG -4272 -2448 triangle
IOPIN -4272 -2448 Out
FLAG -4480 -1792 0
FLAG -4352 -1952 0
FLAG -4048 -2368 Square
IOPIN -4048 -2368 Out
FLAG -4048 -2080 0
FLAG -3696 -2080 0
FLAG -3616 -2224 0
FLAG -3408 -2336 sine
IOPIN -3408 -2336 Out
FLAG -3856 -1856 -ve
FLAG -3536 -2240 -ve
FLAG -3536 -2368 +ve
FLAG -4976 -2512 +ve
SYMBOL res -4720 -2112 R90
WINDOW 0 0 56 VBottom 2
WINDOW 3 32 56 VTop 2
SYMATTR InstName R2
SYMATTR Value 10k
SYMBOL cap -4384 -2256 R90
WINDOW 0 0 32 VBottom 2
WINDOW 3 -27 -16 VTop 2
SYMATTR InstName C1
SYMATTR Value 100n
SYMBOL res -4560 -2112 R0
WINDOW 3 30 82 Left 2
SYMATTR Value 100K
SYMATTR InstName R6
SYMBOL voltage -5456 -2224 R0
WINDOW 123 0 0 Left 2
WINDOW 39 0 0 Left 2
SYMATTR InstName V1
SYMATTR Value 12
SYMBOL voltage -5456 -2112 R0
WINDOW 123 0 0 Left 2
WINDOW 39 0 0 Left 2
SYMATTR InstName V2
SYMATTR Value 12
SYMBOL pot -4864 -2144 M0
WINDOW 39 -82 -32 Left 2
SYMATTR SpiceLine R=10k Val={pot}
SYMATTR InstName X1
SYMBOL AutoGenerated\\TL074 -4416 -2176 R0
SYMATTR InstName U1
SYMBOL AutoGenerated\\TL074 -4176 -2160 R0
SYMATTR InstName U2
SYMBOL pot -5072 -2048 M180
WINDOW 39 -121 131 Left 2
SYMATTR SpiceLine R=10k Val={pot}
SYMATTR InstName X2
SYMBOL res -4720 -2032 R90
WINDOW 0 0 56 VBottom 2
WINDOW 3 32 56 VTop 2
SYMATTR InstName R7
SYMATTR Value 100K
SYMBOL res -4576 -2144 R90
WINDOW 0 0 56 VBottom 2
WINDOW 3 -72 55 VTop 2
SYMATTR InstName R8
SYMATTR Value 100K
SYMBOL res -4576 -2112 R90
WINDOW 0 59 52 VBottom 2
WINDOW 3 65 52 VTop 2
SYMATTR InstName R9
SYMATTR Value 100K
SYMBOL res -4496 -2080 R0
SYMATTR InstName R10
SYMATTR Value 56K
SYMBOL npn -4416 -1904 M0
SYMATTR InstName Q1
SYMATTR Value 2N3904
SYMBOL res -4256 -2016 R90
WINDOW 0 0 56 VBottom 2
WINDOW 3 32 56 VTop 2
SYMATTR InstName R1
SYMATTR Value 56k
SYMBOL res -4160 -1904 R90
WINDOW 0 0 56 VBottom 2
WINDOW 3 32 56 VTop 2
SYMATTR InstName R11
SYMATTR Value 100k
SYMBOL res -4304 -1872 R90
WINDOW 0 0 56 VBottom 2
WINDOW 3 32 56 VTop 2
SYMATTR InstName R12
SYMATTR Value 100k
SYMBOL res -4192 -2256 R90
WINDOW 0 0 56 VBottom 2
WINDOW 3 32 56 VTop 2
SYMATTR InstName R3
SYMATTR Value 2.2k
SYMBOL res -4064 -2208 R0
SYMATTR InstName R13
SYMATTR Value 220
SYMBOL npn -3968 -2288 R0
WINDOW 3 18 64 Left 2
SYMATTR Value 2N3904
SYMATTR InstName Q2
SYMBOL npn -3744 -2288 M0
WINDOW 3 19 62 Left 2
SYMATTR Value 2N3904
SYMATTR InstName Q3
SYMBOL res -3920 -2464 R0
SYMATTR InstName R14
SYMATTR Value 4.7k
SYMBOL res -3824 -2464 R0
SYMATTR InstName R15
SYMATTR Value 4.7k
SYMBOL res -3712 -2208 R0
SYMATTR InstName R16
SYMATTR Value 220
SYMBOL res -3792 -2128 R90
WINDOW 0 0 56 VBottom 2
WINDOW 3 32 56 VTop 2
SYMATTR InstName R4
SYMATTR Value 470
SYMBOL pot\\pot -3904 -2000 R270
WINDOW 39 -28 -54 VRight 2
SYMATTR InstName X3
SYMBOL res -3872 -1984 R0
SYMATTR InstName R5
SYMATTR Value 10k
SYMBOL AutoGenerated\\TL074 -3536 -2400 R0
SYMATTR InstName U3
SYMBOL res -3632 -2336 R0
SYMATTR InstName R17
SYMATTR Value 4.7k
SYMBOL res -3488 -2448 R90
WINDOW 0 0 56 VBottom 2
WINDOW 3 32 112 VTop 2
SYMATTR InstName R18
SYMATTR Value 4.7k
SYMBOL cap -3520 -2528 R90
WINDOW 0 0 32 VBottom 2
WINDOW 3 32 32 VTop 2
SYMATTR InstName C2
SYMATTR Value 100p
TEXT -4704 -2320 Left 2 !.tran 1
TEXT -4704 -2376 Left 2 !.param pot=50
