Version 4
SHEET 1 3300 1832
WIRE 1744 -64 1664 -64
WIRE 2048 -64 1824 -64
WIRE 2176 -64 2144 -64
WIRE 2256 -64 2176 -64
WIRE 2176 -16 2176 -64
WIRE 2176 -16 2096 -16
WIRE 208 0 48 0
WIRE 368 0 288 0
WIRE 992 0 368 0
WIRE 1664 32 1664 -64
WIRE 1744 32 1664 32
WIRE 2256 32 2256 -64
WIRE 2256 32 1808 32
WIRE 992 64 992 0
WIRE 368 80 368 0
WIRE 1664 112 1664 32
WIRE 1744 112 1664 112
WIRE 2256 112 2256 32
WIRE 2256 112 1808 112
WIRE 1984 176 1904 176
WIRE 464 224 336 224
WIRE 704 224 544 224
WIRE 992 224 992 144
WIRE 992 224 704 224
WIRE 1328 224 992 224
WIRE 1904 224 1904 176
WIRE 1664 240 1664 112
WIRE 1872 240 1664 240
WIRE 2256 256 2256 112
WIRE 2256 256 1936 256
WIRE 1200 272 1024 272
WIRE 1792 272 1264 272
WIRE 1872 272 1792 272
WIRE 704 304 704 224
WIRE 1328 304 1328 224
WIRE 1904 336 1904 288
WIRE 1984 336 1904 336
WIRE 1664 384 1664 240
WIRE 1792 384 1792 272
WIRE 704 448 704 384
WIRE 784 448 768 448
WIRE 864 448 848 448
WIRE 944 448 928 448
WIRE 1024 448 1024 272
WIRE 1024 448 1008 448
WIRE 1104 448 1088 448
WIRE 1184 448 1168 448
WIRE 1264 448 1248 448
WIRE 1328 448 1328 384
WIRE 1664 496 1664 464
WIRE 1792 496 1792 464
WIRE 864 528 864 448
WIRE 1024 528 1024 448
WIRE 1184 528 1184 448
WIRE 736 640 608 640
WIRE 864 640 864 592
WIRE 864 640 816 640
WIRE 1184 640 1184 592
WIRE 1184 640 864 640
WIRE 1216 640 1184 640
WIRE 1680 640 1296 640
WIRE 2256 640 2256 256
WIRE 2256 640 1680 640
WIRE 928 736 608 736
WIRE 1024 736 1024 592
WIRE 1024 736 1008 736
WIRE 2112 736 2032 736
WIRE 128 752 0 752
WIRE 128 784 128 752
WIRE 1024 784 1024 736
WIRE 2032 784 2032 736
WIRE 2032 784 2016 784
WIRE 2064 784 2032 784
WIRE 2240 784 2160 784
WIRE 272 832 176 832
WIRE 416 832 352 832
WIRE 2304 864 2304 784
WIRE 2304 864 2128 864
WIRE 1680 880 1680 640
WIRE 1776 880 1680 880
WIRE 1888 880 1840 880
WIRE 2016 880 2016 784
WIRE 2016 880 1968 880
WIRE 2096 880 2016 880
WIRE 2240 896 2240 784
WIRE 2240 896 2160 896
WIRE 2288 896 2240 896
WIRE 1024 912 1024 864
WIRE 2096 912 2016 912
WIRE 128 928 128 880
WIRE 2016 944 2016 912
WIRE 704 960 704 448
WIRE 944 960 704 960
WIRE 1328 960 1328 448
WIRE 1328 960 1088 960
WIRE 944 992 944 960
WIRE 1088 992 1088 960
WIRE 2128 1024 2128 928
WIRE 2160 1024 2128 1024
WIRE 416 1040 416 832
WIRE 720 1040 416 1040
WIRE 880 1040 720 1040
WIRE 1200 1040 1152 1040
WIRE 944 1136 944 1088
WIRE 1008 1136 944 1136
WIRE 1088 1136 1088 1088
WIRE 1088 1136 1008 1136
WIRE 1008 1184 1008 1136
WIRE 32 1216 0 1216
WIRE 144 1216 112 1216
WIRE 720 1216 720 1040
WIRE 144 1264 144 1216
WIRE 272 1312 192 1312
WIRE 416 1312 416 1040
WIRE 416 1312 352 1312
WIRE 1008 1312 1008 1264
WIRE 1152 1312 1008 1312
WIRE 720 1328 720 1296
WIRE 768 1328 720 1328
WIRE 1008 1344 1008 1312
WIRE 1152 1360 1152 1312
WIRE 720 1392 720 1328
WIRE 144 1408 144 1360
WIRE 768 1440 768 1328
WIRE 1008 1456 1008 1424
WIRE 720 1536 720 1488
FLAG 368 144 0
FLAG 336 224 LP
IOPIN 336 224 In
FLAG 608 640 BP
IOPIN 608 640 In
FLAG 1024 912 0
FLAG 608 736 HP
IOPIN 608 736 In
FLAG 1200 1040 0
FLAG 1152 1424 0
FLAG 1008 1456 -ve
IOPIN 1008 1456 In
FLAG 720 1536 0
FLAG 144 1408 0
FLAG 128 928 0
FLAG 0 1216 +ve
IOPIN 0 1216 In
FLAG 0 752 CV
IOPIN 0 752 In
FLAG 1664 496 0
FLAG 1792 496 0
FLAG 1984 176 +ve
IOPIN 1984 176 In
FLAG 1984 336 -ve
IOPIN 1984 336 In
FLAG 2016 944 0
FLAG 2160 1024 -ve
IOPIN 2160 1024 In
FLAG 2304 784 +ve
IOPIN 2304 784 In
FLAG 2288 896 OUT
IOPIN 2288 896 Out
FLAG 48 0 +ve
IOPIN 48 0 In
DATAFLAG 800 960 ""
DATAFLAG 1152 960 ""
DATAFLAG 1024 224 ""
DATAFLAG 1024 1136 ""
SYMBOL res 304 -16 R90
WINDOW 0 0 56 VBottom 2
WINDOW 3 32 56 VTop 2
SYMATTR InstName R1
SYMATTR Value 390
SYMBOL cap 352 80 R0
SYMATTR InstName C1
SYMATTR Value 47µ
SYMBOL res 976 48 R0
SYMATTR InstName R2
SYMATTR Value 1k
SYMBOL res 560 208 R90
WINDOW 0 0 56 VBottom 2
WINDOW 3 32 56 VTop 2
SYMATTR InstName R3
SYMATTR Value 47k
SYMBOL res 720 400 R180
WINDOW 0 36 76 Left 2
WINDOW 3 36 40 Left 2
SYMATTR InstName R4
SYMATTR Value 2.2k
SYMBOL diode 768 432 R90
WINDOW 0 0 32 VBottom 2
WINDOW 3 32 32 VTop 2
SYMATTR InstName D1
SYMATTR Value 1N914
SYMBOL diode 848 432 R90
WINDOW 0 0 32 VBottom 2
WINDOW 3 32 32 VTop 2
SYMATTR InstName D2
SYMATTR Value 1N914
SYMBOL diode 928 432 R90
WINDOW 0 0 32 VBottom 2
WINDOW 3 32 32 VTop 2
SYMATTR InstName D3
SYMATTR Value 1N914
SYMBOL diode 1008 432 R90
WINDOW 0 0 32 VBottom 2
WINDOW 3 32 32 VTop 2
SYMATTR InstName D4
SYMATTR Value 1N914
SYMBOL diode 1088 432 R90
WINDOW 0 0 32 VBottom 2
WINDOW 3 32 32 VTop 2
SYMATTR InstName D5
SYMATTR Value 1N914
SYMBOL diode 1168 432 R90
WINDOW 0 0 32 VBottom 2
WINDOW 3 32 32 VTop 2
SYMATTR InstName D6
SYMATTR Value 1N914
SYMBOL diode 1248 432 R90
WINDOW 0 0 32 VBottom 2
WINDOW 3 32 32 VTop 2
SYMATTR InstName D7
SYMATTR Value 1N914
SYMBOL diode 1328 432 R90
WINDOW 0 0 32 VBottom 2
WINDOW 3 32 32 VTop 2
SYMATTR InstName D8
SYMATTR Value 1N914
SYMBOL res 1312 288 R0
SYMATTR InstName R5
SYMATTR Value 2.2k
SYMBOL cap 848 528 R0
SYMATTR InstName C3
SYMATTR Value 2.2n
SYMBOL cap 1008 528 R0
SYMATTR InstName C4
SYMATTR Value 2.2n
SYMBOL cap 1168 528 R0
SYMATTR InstName C5
SYMATTR Value 2.2n
SYMBOL res 832 624 R90
WINDOW 0 0 56 VBottom 2
WINDOW 3 32 56 VTop 2
SYMATTR InstName R8
SYMATTR Value 47k
SYMBOL res 1312 624 R90
WINDOW 0 0 56 VBottom 2
WINDOW 3 32 56 VTop 2
SYMATTR InstName R9
SYMATTR Value 1k
SYMBOL cap 1264 256 R90
WINDOW 0 0 32 VBottom 2
WINDOW 3 32 32 VTop 2
SYMATTR InstName C6
SYMATTR Value 0.68µ
SYMBOL res 1024 720 R90
WINDOW 0 0 56 VBottom 2
WINDOW 3 32 56 VTop 2
SYMATTR InstName R10
SYMATTR Value 47k
SYMBOL res 1008 768 R0
SYMATTR InstName R11
SYMATTR Value 1k
SYMBOL npn 880 992 R0
SYMATTR InstName Q1
SYMATTR Value 2N2222
SYMBOL npn 1152 992 M0
SYMATTR InstName Q2
SYMATTR Value 2N2222
SYMBOL res 992 1168 R0
SYMATTR InstName R12
SYMATTR Value 3.9k
SYMBOL res 992 1328 R0
SYMATTR InstName R13
SYMATTR Value 82
SYMBOL cap 1136 1360 R0
SYMATTR InstName C7
SYMATTR Value 47µ
SYMBOL res 704 1200 R0
SYMATTR InstName R14
SYMATTR Value 1.2k
SYMBOL res 368 1296 R90
WINDOW 0 0 56 VBottom 2
WINDOW 3 32 56 VTop 2
SYMATTR InstName R15
SYMATTR Value 220k
SYMBOL res 368 816 R90
WINDOW 0 0 56 VBottom 2
WINDOW 3 32 56 VTop 2
SYMATTR InstName R16
SYMATTR Value 220k
SYMBOL res 128 1200 R90
WINDOW 0 0 56 VBottom 2
WINDOW 3 32 56 VTop 2
SYMATTR InstName R17
SYMATTR Value 68k
SYMBOL res 1648 368 R0
SYMATTR InstName R18
SYMATTR Value 22k
SYMBOL res 1776 368 R0
SYMATTR InstName R19
SYMATTR Value 2.2Meg
SYMBOL diode 1808 16 R90
WINDOW 0 0 32 VBottom 2
WINDOW 3 32 32 VTop 2
SYMATTR InstName D9
SYMATTR Value 1N914
SYMBOL diode 1744 128 R270
WINDOW 0 32 32 VTop 2
WINDOW 3 0 32 VBottom 2
SYMATTR InstName D10
SYMATTR Value 1N914
SYMBOL res 1840 -80 R90
WINDOW 0 0 56 VBottom 2
WINDOW 3 32 56 VTop 2
SYMATTR InstName R20
SYMATTR Value 4.7k
SYMBOL cap 1840 864 R90
WINDOW 0 0 32 VBottom 2
WINDOW 3 32 32 VTop 2
SYMATTR InstName C8
SYMATTR Value 10µ
SYMBOL res 1984 864 R90
WINDOW 0 0 56 VBottom 2
WINDOW 3 32 56 VTop 2
SYMATTR InstName R21
SYMATTR Value 10k
SYMBOL Opamps\\opamp2 1904 192 R0
SYMATTR InstName U1
SYMATTR Value TL072
SYMBOL Opamps\\opamp2 2128 832 R0
SYMATTR InstName U3
SYMATTR Value TL072
SYMBOL pot 144 880 R180
SYMATTR InstName CV
SYMATTR SpiceLine R=100k Val={VCV}
SYMBOL pot 160 1360 R180
SYMATTR InstName CF
SYMATTR SpiceLine R=100k Val={VCF}
SYMBOL pot 736 1488 R180
SYMATTR InstName Tracking
SYMATTR SpiceLine R=10k Val={VT}
SYMBOL pot 2160 768 R90
SYMATTR InstName Gain
SYMATTR SpiceLine R=1Meg Val={VG}
SYMBOL pot 2048 -48 R270
WINDOW 0 126 16 VBottom 2
SYMATTR InstName Resonance
SYMATTR SpiceLine R=25k Val={VR}
TEXT 1248 1632 Left 2 ;.step param V 0 5 1
TEXT -352 1768 Left 2 ;.ac dec 100 10 20k
TEXT 2792 864 Left 2 !.include TL072.sub
TEXT -352 1792 Left 2 ;.op
TEXT 2512 704 Left 2 ;X6 controls the output gain
TEXT -528 1400 Left 2 ;X4 control the corner frequency for LP, HP, and BP.
TEXT 2448 -88 Left 2 ;X5 controls the resonance quality factor Q
TEXT -544 640 Left 2 ;X1 controls the input level
TEXT 568 1344 Left 2 ;tracking
TEXT -544 1816 Left 2 ;.tran 3
TEXT 2448 -56 Left 2 ;.param RR = 25k\n.param VR = 10
TEXT 2512 736 Left 2 ;.param RG = 1Meg\n.param VG = 47
TEXT 800 1504 Left 2 ;.param RT = 10k\n.param VT = 25
TEXT -112 880 Left 2 ;.param RCV = 100k\n.param VCV = 50
TEXT -216 1312 Left 2 ;.param RCF = 100k\n.param VCF = 30
